  
       XFOIL         Version 6.99
  
 Calculated polar for: "x [mm]" "y [mm]"                               
  
 1 1 Reynolds number fixed          Mach number fixed         
  
 xtrf =   1.000 (top)        1.000 (bottom)  
 Mach =   0.030     Re =     0.068 e 6     Ncrit =   9.000
  
   alpha    CL        CD       CDp       CM     Top_Xtr  Bot_Xtr
  ------ -------- --------- --------- -------- -------- --------
   0.000   0.2094   0.02658   0.01829  -0.0712   0.8943   1.0000
   0.200   0.2422   0.02679   0.01834  -0.0732   0.8843   1.0000
   0.400   0.2703   0.02708   0.01851  -0.0744   0.8749   1.0000
   0.600   0.3000   0.02727   0.01859  -0.0758   0.8650   1.0000
   0.800   0.3308   0.02747   0.01869  -0.0773   0.8559   1.0000
   1.000   0.3575   0.02764   0.01878  -0.0781   0.8454   1.0000
   1.200   0.3928   0.02768   0.01874  -0.0801   0.8373   1.0000
   1.400   0.4153   0.02786   0.01886  -0.0801   0.8256   1.0000
   1.600   0.4635   0.02749   0.01843  -0.0838   0.8204   1.0000
   2.000   0.5190   0.02738   0.01825  -0.0847   0.8007   1.0000
   2.400   0.5750   0.02701   0.01783  -0.0853   0.7806   1.0000
   2.800   0.6305   0.02650   0.01731  -0.0854   0.7602   1.0000
   3.000   0.6443   0.02681   0.01764  -0.0838   0.7450   1.0000
   3.200   0.6686   0.02668   0.01750  -0.0834   0.7334   1.0000
   3.400   0.7002   0.02613   0.01695  -0.0837   0.7235   1.0000
   3.600   0.7203   0.02615   0.01697  -0.0827   0.7094   1.0000
   3.800   0.7569   0.02532   0.01614  -0.0834   0.7011   1.0000
   4.000   0.7738   0.02552   0.01635  -0.0821   0.6854   1.0000
   4.200   0.7961   0.02552   0.01634  -0.0814   0.6723   1.0000
   4.400   0.8270   0.02505   0.01583  -0.0817   0.6618   1.0000
   4.600   0.8437   0.02535   0.01615  -0.0804   0.6463   1.0000
   4.800   0.8663   0.02538   0.01617  -0.0798   0.6334   1.0000
   5.000   0.8936   0.02517   0.01596  -0.0797   0.6220   1.0000
   5.200   0.9090   0.02568   0.01650  -0.0785   0.6079   1.0000
   5.400   0.9347   0.02565   0.01643  -0.0784   0.5974   1.0000
   5.600   0.9532   0.02600   0.01680  -0.0775   0.5846   1.0000
   5.800   0.9715   0.02640   0.01722  -0.0767   0.5726   1.0000
   6.000   0.9968   0.02641   0.01718  -0.0765   0.5622   1.0000
   6.200   1.0111   0.02705   0.01790  -0.0753   0.5499   1.0000
   6.400   1.0398   0.02692   0.01766  -0.0755   0.5404   1.0000
   6.800   1.0731   0.02779   0.01870  -0.0733   0.5160   1.0000
   7.000   1.0936   0.02786   0.01875  -0.0725   0.5029   1.0000
   7.200   1.1085   0.02827   0.01923  -0.0711   0.4893   1.0000
   7.400   1.1307   0.02832   0.01921  -0.0705   0.4768   1.0000
   7.600   1.1480   0.02862   0.01955  -0.0694   0.4639   1.0000
   7.800   1.1636   0.02917   0.02018  -0.0683   0.4521   1.0000
   8.000   1.1880   0.02932   0.02023  -0.0681   0.4408   1.0000
   8.200   1.1984   0.03005   0.02122  -0.0663   0.4280   1.0000
   8.400   1.2173   0.03042   0.02158  -0.0655   0.4152   1.0000
   8.600   1.2382   0.03064   0.02172  -0.0648   0.4012   1.0000
   8.800   1.2483   0.03131   0.02254  -0.0629   0.3865   1.0000
   9.000   1.2632   0.03188   0.02313  -0.0615   0.3714   1.0000
   9.200   1.2806   0.03243   0.02362  -0.0605   0.3559   1.0000
   9.400   1.2993   0.03302   0.02407  -0.0597   0.3394   1.0000
   9.600   1.3091   0.03384   0.02497  -0.0577   0.3228   1.0000
   9.800   1.3176   0.03483   0.02606  -0.0557   0.3067   1.0000
  10.000   1.3282   0.03578   0.02703  -0.0539   0.2913   1.0000
  10.200   1.3422   0.03648   0.02763  -0.0526   0.2769   1.0000
  10.400   1.3507   0.03717   0.02837  -0.0506   0.2636   1.0000
  10.600   1.3559   0.03816   0.02949  -0.0483   0.2520   1.0000
  10.800   1.3720   0.03842   0.02963  -0.0473   0.2400   1.0000
  11.000   1.3690   0.03958   0.03113  -0.0442   0.2306   1.0000
  11.200   1.3845   0.03986   0.03120  -0.0432   0.2202   1.0000
  11.400   1.3800   0.04114   0.03280  -0.0399   0.2124   1.0000
  11.600   1.3854   0.04161   0.03324  -0.0378   0.2036   1.0000
  11.800   1.3858   0.04263   0.03434  -0.0352   0.1959   1.0000
  12.000   1.3825   0.04367   0.03552  -0.0324   0.1881   1.0000
  12.200   1.3886   0.04432   0.03598  -0.0307   0.1792   1.0000
  12.400   1.3802   0.04597   0.03793  -0.0280   0.1729   1.0000
  12.600   1.3793   0.04711   0.03909  -0.0260   0.1649   1.0000
  12.800   1.3781   0.04866   0.04066  -0.0242   0.1569   1.0000
  13.000   1.3696   0.05069   0.04290  -0.0222   0.1498   1.0000
  13.200   1.3703   0.05224   0.04424  -0.0207   0.1389   1.0000
  13.400   1.3551   0.05505   0.04738  -0.0189   0.1323   1.0000
  13.600   1.0175   0.12095   0.11443  -0.0452   0.2033   1.0000
  13.800   1.0023   0.12813   0.12161  -0.0480   0.2024   1.0000
  14.000   0.9902   0.13485   0.12833  -0.0505   0.2019   1.0000
  14.200   0.9801   0.14126   0.13475  -0.0530   0.2016   1.0000
  14.400   0.9722   0.14728   0.14079  -0.0554   0.2014   1.0000
  14.600   0.9633   0.15341   0.14693  -0.0580   0.2013   1.0000
  14.800   0.9529   0.15970   0.15322  -0.0611   0.2016   1.0000
  15.000   0.9425   0.16573   0.15925  -0.0642   0.2021   1.0000
  15.200   0.9359   0.17104   0.16458  -0.0669   0.2025   1.0000
  15.400   0.9321   0.17595   0.16952  -0.0692   0.2026   1.0000
  15.600   0.9266   0.18076   0.17436  -0.0717   0.2030   1.0000
  15.800   0.9226   0.18543   0.17905  -0.0741   0.2033   1.0000
  16.000   0.9217   0.19022   0.18388  -0.0761   0.2032   1.0000
  16.200   0.9082   0.19525   0.18888  -0.0804   0.2073   1.0000
  16.400   0.9673   0.17645   0.17025  -0.0656   0.1142   1.0000
  16.600   0.9585   0.18344   0.17721  -0.0694   0.1116   1.0000
  16.800   0.9547   0.18914   0.18289  -0.0723   0.1094   1.0000
  17.000   0.9521   0.19477   0.18850  -0.0751   0.1089   1.0000
  17.200   0.9488   0.20080   0.19451  -0.0783   0.1112   1.0000
  17.400   0.9499   0.20619   0.19990  -0.0806   0.1147   1.0000
  17.600   0.9606   0.21108   0.20482  -0.0807   0.1181   1.0000
  17.800   0.9747   0.21623   0.21001  -0.0800   0.1195   1.0000
  18.000   0.9809   0.21318   0.20699  -0.0799   0.1013   1.0000
  18.200   0.9866   0.21801   0.21180  -0.0806   0.0998   1.0000
  18.400   0.9881   0.23800   0.23182  -0.0875   0.1399   1.0000
  18.600   0.9856   0.24069   0.23449  -0.0906   0.1397   1.0000
  18.800   0.9778   0.24119   0.23494  -0.0946   0.1390   1.0000
  19.000   0.9686   0.24096   0.23466  -0.0996   0.1357   1.0000
  19.200   0.9714   0.24341   0.23711  -0.1019   0.1313   1.0000
  19.400   0.9776   0.24624   0.23994  -0.1033   0.1280   1.0000
  19.600   0.9856   0.24924   0.24296  -0.1042   0.1253   1.0000
  19.800   0.9966   0.25298   0.24682  -0.1042   0.1230   1.0000
  20.000   1.0221   0.26348   0.25742  -0.1010   0.1207   1.0000
