  
       XFOIL         Version 6.99
  
 Calculated polar for: x [mm]        y [mm]                            
  
 1 1 Reynolds number fixed          Mach number fixed         
  
 xtrf =   1.000 (top)        1.000 (bottom)  
 Mach =   0.030     Re =     0.068 e 6     Ncrit =   9.000
  
   alpha    CL        CD       CDp       CM     Top_Xtr  Bot_Xtr
  ------ -------- --------- --------- -------- -------- --------
   0.000  39.6590   0.59391   0.07808 *   0.4427   0.0381
   0.200  41.8515   0.58882   0.07763 *   0.4288   0.0673
   0.300  42.9331   0.58936   0.07806 *   0.4190   0.0780
   0.400  44.0462   0.59195   0.07911 *   0.4117   0.0798
   0.500  45.1241   0.59703   0.08086 *   0.4000   0.0870
   0.700  47.2892   0.59956   0.08430 *   0.3820   0.1118
   0.800  48.3886   0.59723   0.08472 *   0.3757   0.1317
   0.900  49.4575   0.59833   0.08691 *   0.3668   0.1502
   1.000  50.5505   0.60026   0.08835 *   0.3578   0.1602
   1.100  51.6346   0.59998   0.09021 *   0.3509   0.1798
   1.200  52.7076   0.60216   0.09279 *   0.3413   0.1959
   1.300  53.8153   0.60177   0.09414 *   0.3361   0.2114
   1.400  54.8815   0.60700   0.09737 *   0.3264   0.2212
   1.500  55.9777   0.60785   0.09918 *   0.3186   0.2357
   1.600  57.0764   0.60975   0.10154 *   0.3130   0.2483
   1.800  59.2708   0.61168   0.10599 *   0.3018   0.2784
   1.900  60.3941   0.60959   0.10756 *   0.2996   0.2963
   2.000  61.5195   0.60725   0.10908 *   0.2984   0.3148
   2.100  62.6440   0.60539   0.11074 *   0.2971   0.3323
   2.300  64.8485   0.60314   0.11526 *   0.2909   0.3763
   2.400  65.9315   0.60310   0.11835 *   0.2858   0.4014
   2.500  67.0378   0.60242   0.12076 *   0.2810   0.4214
   2.600  68.1437   0.59703   0.12255 *   0.2797   0.4561
   2.700  69.2589   0.59290   0.12475 *   0.2791   0.4851
   2.800  70.3651   0.58764   0.12669 *   0.2783   0.5200
   2.900  71.4778   0.58435   0.12910 *   0.2773   0.5457
   3.000  72.5834   0.58076   0.13131 *   0.2760   0.5747
   3.100  73.6879   0.57832   0.13410 *   0.2744   0.6009
   3.200  74.7296   0.56721   0.13749 *   0.2725   0.6680
   3.300  75.7206   0.55226   0.14188 *   0.2701   0.7558
   3.400  76.8021   0.55156   0.14495 *   0.2671   0.7794
   3.600  78.9416   0.54666   0.15126 *   0.2600   0.8342
   3.700  79.9862   0.54121   0.15437 *   0.2594   0.8679
   3.800  80.9395   0.53374   0.15803 *   0.2584   0.9116
   3.900  81.8930   0.53100   0.16167 *   0.2569   0.9412
   4.100  83.8636   0.53384   0.16817 *   0.2527   0.9701
   4.200  84.9310   0.53864   0.17175 *   0.2491   0.9759
   4.300  86.0593   0.54411   0.17543 *   0.2443   0.9807
   4.400  87.2758   0.54840   0.17839 *   0.2398   0.9847
   4.500  88.4788   0.55151   0.18155 *   0.2386   0.9885
   4.600  89.6761   0.55874   0.18589 *   0.2330   0.9907
   4.700  90.9155   0.57206   0.19254 *   0.2196   0.9922
   4.800  92.0961   0.58742   0.20089 *   0.2068   0.9936
   4.900  93.2962   0.59743   0.20638 *   0.1969   0.9948
   5.000  94.4296   0.61284   0.21537 *   0.1852   0.9960
   5.100  95.6453   0.62225   0.22085 *   0.1767   0.9972
   5.200  96.8520   0.63748   0.23014 *   0.1665   0.9985
   5.300  98.1638   0.64708   0.23606 *   0.1582   0.9996
   5.400  99.2697   0.66012   0.24444 *   0.1504   1.0000
   5.500 100.1763   0.67202   0.25173 *   0.1401   1.0000
   5.700 102.0353   0.69540   0.26719 *   0.1269   1.0000
   5.800 103.0071   0.70527   0.27360 *   0.1186   1.0000
   5.900 103.8733   0.72362   0.28523 *   0.1081   1.0000
   6.000 104.8217   0.73653   0.29350 *   0.0977   1.0000
   6.100 105.7949   0.74794   0.30140 *   0.0932   1.0000
   6.200 106.7780   0.75896   0.30970 *   0.0887   1.0000
   6.300 107.7998   0.76714   0.31582 *   0.0839   1.0000
   6.400 108.8470   0.77343   0.32100 *   0.0801   1.0000
   6.500 109.9030   0.77910   0.32597 *   0.0793   1.0000
   6.600 110.9507   0.78552   0.33144 *   0.0782   1.0000
   6.700 111.9659   0.79463   0.33854 *   0.0758   1.0000
   6.800 112.9391   0.80724   0.34761 *   0.0716   1.0000
   6.900 113.9293   0.81854   0.35583 *   0.0673   1.0000
   7.000 114.9530   0.82712   0.36246 *   0.0623   1.0000
   7.100 115.9967   0.83406   0.36842 *   0.0597   1.0000
   7.200 117.0090   0.84357   0.37622 *   0.0578   1.0000
   7.300 117.8783   0.86496   0.39135 *   0.0518   1.0000
   7.400 118.8593   0.87700   0.40078 *   0.0483   1.0000
   7.500 119.7399   0.89726   0.41541 *   0.0407   1.0000
   7.700 121.3521   0.95080   0.45706 *   0.0192   1.0000
   7.800 122.3304   0.96285   0.46763 *   0.0178   1.0000
   7.900 123.3090   0.97477   0.47772 *   0.0164   1.0000
   8.000 124.3090   0.98478   0.48653 *   0.0150   1.0000
   8.100 125.3169   0.99394   0.49494 *   0.0135   1.0000
   8.200 126.3315   1.00250   0.50299 *   0.0123   1.0000
   8.300 127.3466   1.01077   0.51102 *   0.0120   1.0000
   8.400 128.3556   1.01941   0.51940 *   0.0118   1.0000
   8.500 129.3536   1.02884   0.52843 *   0.0115   1.0000
   8.600 130.3319   1.03973   0.53875 *   0.0110   1.0000
   8.700 131.2955   1.05172   0.55011 *   0.0104   1.0000
   8.800 132.2402   1.06504   0.56244 *   0.0096   1.0000
   8.900 133.1850   1.07822   0.57493 *   0.0085   1.0000
   9.000 134.1574   1.08899   0.58567 *   0.0081   1.0000
   9.100 135.1511   1.09779   0.59411 *   0.0081   1.0000
   9.200 136.1424   1.10663   0.60260 *   0.0080   1.0000
   9.300 137.1300   1.11558   0.61124 *   0.0080   1.0000
   9.400 138.1132   1.12472   0.62010 *   0.0080   1.0000
   9.500 139.0925   1.13402   0.62915 *   0.0080   1.0000
   9.600 140.0661   1.14353   0.63844 *   0.0079   1.0000
   9.700 141.0356   1.15321   0.64790 *   0.0079   1.0000
   9.800 141.9995   1.16309   0.65756 *   0.0078   1.0000
   9.900 142.9582   1.17326   0.66868 *   0.0077   1.0000
  10.000 143.9087   1.18371   0.67890 *   0.0076   1.0000
  10.100 144.8502   1.19466   0.68952 *   0.0075   1.0000
  10.200 145.7829   1.20599   0.70050 *   0.0073   1.0000
  10.300 146.7033   1.21800   0.71209 *   0.0070   1.0000
  10.400 147.6095   1.23075   0.72435 *   0.0068   1.0000
  10.500 148.5024   1.24420   0.73724 *   0.0065   1.0000
  10.600 149.3909   1.25769   0.75021 *   0.0062   1.0000
  10.700 150.2707   1.27150   0.76342 *   0.0058   1.0000
  10.800 151.1477   1.28517   0.77674 *   0.0054   1.0000
  10.900 152.0160   1.29913   0.79068 *   0.0050   1.0000
  11.000 152.8766   1.31332   0.80516 *   0.0048   1.0000
  11.100 153.7249   1.32791   0.82035 *   0.0046   1.0000
  11.200 154.5649   1.34270   0.83592 *   0.0044   1.0000
  11.300 155.3943   1.35778   0.85188 *   0.0043   1.0000
  11.400 156.2109   1.37320   0.86830 *   0.0042   1.0000
  11.500 156.9954   1.38963   0.88607 *   0.0041   1.0000
  11.600 157.7916   1.40260   0.89922 *   0.0041   1.0000
  11.700 158.5664   1.41552   0.91225 *   0.0041   1.0000
  11.800 159.3204   1.42839   0.92518 *   0.0041   1.0000
  11.900 160.0602   1.44157   0.93847 *   0.0041   1.0000
  12.000 160.7889   1.45507   0.95286 *   0.0041   1.0000
  12.100 161.5156   1.46890   0.96683 *   0.0040   1.0000
  12.200 162.2382   1.48337   0.98158 *   0.0040   1.0000
  12.300 162.9533   1.49780   0.99619 *   0.0040   1.0000
  12.400 163.6512   1.51284   1.01151 *   0.0040   1.0000
  12.500 164.3572   1.52769   1.02653 *   0.0040   1.0000
  12.600 165.0434   1.54389   1.04316 *   0.0040   1.0000
  12.700 165.7371   1.55985   1.05939 *   0.0040   1.0000
  12.800 166.4331   1.57609   1.07589 *   0.0040   1.0000
  12.900 167.1059   1.59322   1.09339 *   0.0040   1.0000
  13.000 167.7514   1.61112   1.11176 *   0.0040   1.0000
  13.100 168.4014   1.62907   1.13008 *   0.0039   1.0000
  13.200 169.0592   1.64750   1.14895 *   0.0039   1.0000
  13.300 169.7245   1.66620   1.16807 *   0.0039   1.0000
  13.400 170.3945   1.68512   1.18735 *   0.0039   1.0000
  13.500 171.0267   1.70579   1.20862 *   0.0039   1.0000
  13.600 171.6367   1.72715   1.23049 *   0.0038   1.0000
  13.700 172.2387   1.74888   1.25275 *   0.0038   1.0000
  13.800 172.8480   1.77084   1.27523 *   0.0038   1.0000
  13.900 173.4626   1.79321   1.29849 *   0.0037   1.0000
  14.000 174.0453   1.81729   1.32317 *   0.0037   1.0000
  14.100 174.5996   1.84301   1.34955 *   0.0036   1.0000
  14.200 175.1617   1.86912   1.37623 *   0.0036   1.0000
  14.300 175.7332   1.89549   1.40313 *   0.0035   1.0000
  14.400 176.2973   1.92255   1.43081 *   0.0035   1.0000
  14.500 176.7922   1.95247   1.46139 *   0.0034   1.0000
  14.600 177.2845   1.98285   1.49243 *   0.0034   1.0000
  14.700 177.8003   2.01301   1.52332 *   0.0033   1.0000
  14.800 178.3061   2.04464   1.55550 *   0.0033   1.0000
  14.900 178.7648   2.07919   1.59075 *   0.0032   1.0000
  15.000 179.2140   2.11492   1.62727 *   0.0031   1.0000
  15.100 179.6794   2.15070   1.66378 *   0.0031   1.0000
  15.200 180.1423   2.18732   1.70110 *   0.0030   1.0000
  15.300 180.5522   2.22729   1.74199 *   0.0029   1.0000
  15.400 180.9445   2.26822   1.78385 *   0.0029   1.0000
  15.500 181.3579   2.30827   1.82488 *   0.0028   1.0000
  15.600 181.7536   2.35015   1.86780 *   0.0027   1.0000
  15.700 182.0992   2.39615   1.91506 *   0.0027   1.0000
  15.800 182.4670   2.44188   1.96200 *   0.0026   1.0000
  15.900 182.8323   2.48860   2.01043 *   0.0025   1.0000
  16.000 183.1586   2.53882   2.06210 *   0.0025   1.0000
  16.100 183.4582   2.59185   2.11676 *   0.0024   1.0000
  16.200 183.8089   2.64186   2.16830 *   0.0024   1.0000
  16.300 184.1055   2.69650   2.22470 *   0.0023   1.0000
  16.400 184.3204   2.75764   2.28791 *   0.0022   1.0000
  16.500 184.6048   2.81312   2.34519 *   0.0022   1.0000
  16.600 184.8283   2.87440   2.40867 *   0.0022   1.0000
  16.700 184.9757   2.94304   2.47974 *   0.0021   1.0000
  16.800 185.1629   3.00990   2.54912 *   0.0021   1.0000
  16.900 185.4639   3.06790   2.60847 *   0.0021   1.0000
  17.000 185.6724   3.13502   2.67730 *   0.0021   1.0000
  17.100 185.9744   3.19455   2.73802 *   0.0021   1.0000
  17.200 186.2583   3.25590   2.80077 *   0.0021   1.0000
  17.300 186.4218   3.32961   2.87630 *   0.0021   1.0000
  17.400 186.6787   3.39549   2.94348 *   0.0021   1.0000
  17.500 186.9228   3.46262   3.01220 *   0.0021   1.0000
  17.600 187.0680   3.54039   3.09174 *   0.0021   1.0000
  17.700 187.2438   3.61492   3.16786 *   0.0021   1.0000
  17.800 187.4311   3.68807   3.24273 *   0.0020   1.0000
  17.900 187.5454   3.77153   3.32799 *   0.0020   1.0000
  18.000 187.6928   3.85267   3.41068 *   0.0020   1.0000
  18.100 187.8863   3.92940   3.48945 *   0.0020   1.0000
  18.200 187.9583   4.02089   3.58296 *   0.0020   1.0000
  18.300 188.0005   4.11636   3.68056 *   0.0020   1.0000
  18.400 188.1559   4.19991   3.76574 *   0.0020   1.0000
  18.500 188.1823   4.29900   3.86694 *   0.0020   1.0000
  18.600 188.2100   4.39984   3.96980 *   0.0020   1.0000
  18.700 188.3259   4.49013   4.06180 *   0.0020   1.0000
  18.800 188.3284   4.59582   4.16952 *   0.0020   1.0000
  18.900 188.2855   4.70656   4.28250 *   0.0020   1.0000
  19.000 188.3351   4.80513   4.38298 *   0.0020   1.0000
  19.100 188.2046   4.92617   4.50649 *   0.0020   1.0000
  19.200 188.1413   5.04088   4.62334 *   0.0020   1.0000
  19.300 188.1365   5.14836   4.73285 *   0.0020   1.0000
  19.400 187.9396   5.28359   4.87065 *   0.0020   1.0000
  19.500 187.8508   5.40454   4.99382 *   0.0020   1.0000
  19.600 187.7612   5.52644   5.11805 *   0.0020   1.0000
  19.700 187.4992   5.67391   5.26816 *   0.0020   1.0000
  19.800 187.3713   5.80287   5.39952 *   0.0019   1.0000
  19.900 187.1733   5.94294   5.54204 *   0.0019   1.0000
  20.000 186.8808   6.09715   5.69905 *   0.0019   1.0000
