  
       XFOIL         Version 6.99
  
 Calculated polar for: x [mm]        y [mm]                            
  
 1 1 Reynolds number fixed          Mach number fixed         
  
 xtrf =   1.000 (top)        1.000 (bottom)  
 Mach =   0.047     Re =     0.106 e 6     Ncrit =   9.000
  
   alpha    CL        CD       CDp       CM     Top_Xtr  Bot_Xtr
  ------ -------- --------- --------- -------- -------- --------
   0.000  39.4728   0.58777   0.08074 *   0.3666   0.0300
   0.100  40.5970   0.59010   0.08104 *   0.3588   0.0300
   0.200  41.7264   0.59072   0.08176 *   0.3545   0.0359
   0.300  42.8293   0.59382   0.08322 *   0.3473   0.0378
   0.400  43.9500   0.59551   0.08366 *   0.3396   0.0397
   0.500  45.0556   0.58953   0.08292 *   0.3363   0.0597
   0.600  46.1589   0.59031   0.08433 *   0.3306   0.0727
   0.700  47.2639   0.59196   0.08556 *   0.3231   0.0785
   0.800  48.4004   0.59315   0.08595 *   0.3186   0.0798
   0.900  49.5226   0.59513   0.08723 *   0.3142   0.0868
   1.000  50.6142   0.59722   0.08912 *   0.3073   0.0960
   1.100  51.7278   0.59717   0.09017 *   0.3000   0.1097
   1.200  52.8608   0.59500   0.09079 *   0.2986   0.1217
   1.300  53.9726   0.59315   0.09178 *   0.2952   0.1396
   1.400  55.0740   0.59273   0.09339 *   0.2909   0.1577
   1.500  56.1934   0.59287   0.09488 *   0.2875   0.1708
   1.600  57.3185   0.59234   0.09623 *   0.2838   0.1831
   1.700  58.4444   0.59068   0.09712 *   0.2801   0.1978
   1.800  59.5823   0.58874   0.09822 *   0.2795   0.2125
   1.900  60.7204   0.58818   0.09959 *   0.2784   0.2223
   2.000  61.8430   0.58684   0.10096 *   0.2763   0.2384
   2.100  62.9588   0.58684   0.10294 *   0.2734   0.2536
   2.200  64.0734   0.58818   0.10511 *   0.2703   0.2660
   2.300  65.1957   0.58781   0.10675 *   0.2680   0.2792
   2.400  66.3227   0.58755   0.10857 *   0.2656   0.2927
   2.500  67.4595   0.58849   0.11013 *   0.2631   0.2982
   2.600  68.5883   0.58697   0.11186 *   0.2609   0.3157
   2.700  69.7233   0.58543   0.11335 *   0.2600   0.3317
   2.800  70.8551   0.58308   0.11500 *   0.2596   0.3514
   2.900  71.9862   0.58101   0.11673 *   0.2591   0.3706
   3.000  73.1080   0.57791   0.11859 *   0.2583   0.3967
   3.100  74.2236   0.57634   0.12082 *   0.2565   0.4195
   3.200  75.3138   0.57548   0.12413 *   0.2528   0.4480
   3.300  76.3221   0.56121   0.12898 *   0.2488   0.5489
   3.400  77.4117   0.56020   0.13196 *   0.2440   0.5772
   3.600  79.6550   0.55864   0.13639 *   0.2396   0.6116
   3.700  80.7793   0.55769   0.13870 *   0.2389   0.6286
   3.800  81.8870   0.55565   0.14125 *   0.2374   0.6539
   3.900  82.9712   0.55582   0.14473 *   0.2338   0.6790
   4.000  83.9952   0.55698   0.15030 *   0.2263   0.7167
   4.100  85.0298   0.55006   0.15473 *   0.2204   0.7740
   4.200  86.0975   0.54452   0.15757 *   0.2191   0.8156
   4.300  87.1436   0.54093   0.16151 *   0.2166   0.8524
   4.400  88.0865   0.55251   0.17002 *   0.1995   0.8726
   4.500  88.9965   0.56985   0.18139 *   0.1788   0.8859
   4.600  89.9138   0.58557   0.19274 *   0.1604   0.9003
   4.700  90.9508   0.58861   0.19658 *   0.1567   0.9146
   4.800  91.9225   0.59926   0.20509 *   0.1479   0.9258
   4.900  92.9386   0.60425   0.20976 *   0.1399   0.9388
   5.100  94.8875   0.62009   0.22327 *   0.1286   0.9600
   5.200  95.8644   0.62676   0.22869 *   0.1200   0.9689
   5.400  97.8565   0.64593   0.24264 *   0.1089   0.9793
   5.500  98.9314   0.65484   0.24864 *   0.0998   0.9833
   5.600 100.0361   0.66328   0.25462 *   0.0962   0.9871
   5.700 101.1632   0.67666   0.26331 *   0.0896   0.9908
   5.800 102.5430   0.68539   0.26951 *   0.0829   0.9941
   5.900 103.9087   0.69114   0.27386 *   0.0798   0.9972
   6.000 105.2368   0.69669   0.27841 *   0.0791   0.9992
   6.100 106.4337   0.70330   0.28361 *   0.0777   1.0000
   6.200 107.4258   0.71291   0.29110 *   0.0745   1.0000
   6.300 108.4104   0.72364   0.29860 *   0.0706   1.0000
   6.400 109.4295   0.73203   0.30483 *   0.0667   1.0000
   6.500 110.4714   0.73884   0.31013 *   0.0622   1.0000
   6.600 111.5292   0.74456   0.31477 *   0.0598   1.0000
   6.700 112.5720   0.75163   0.32056 *   0.0587   1.0000
   6.800 113.5126   0.76718   0.33178 *   0.0546   1.0000
   6.900 114.4904   0.77986   0.34094 *   0.0498   1.0000
   7.000 115.4698   0.79241   0.35037 *   0.0465   1.0000
   7.100 116.4334   0.80642   0.36061 *   0.0399   1.0000
   7.200 117.3481   0.82475   0.37450 *   0.0335   1.0000
   7.300 118.1316   0.85437   0.39668 *   0.0190   1.0000
   7.400 119.1358   0.86513   0.40555 *   0.0176   1.0000
   7.500 120.1470   0.87521   0.41393 *   0.0163   1.0000
   7.600 121.1758   0.88369   0.42186 *   0.0150   1.0000
   7.700 122.2125   0.89145   0.42881 *   0.0136   1.0000
   7.800 123.2521   0.89888   0.43559 *   0.0125   1.0000
   7.900 124.2926   0.90612   0.44233 *   0.0120   1.0000
   8.000 125.3279   0.91371   0.44946 *   0.0118   1.0000
   8.100 126.3530   0.92204   0.45727 *   0.0115   1.0000
   8.200 127.3661   0.93134   0.46597 *   0.0110   1.0000
   8.300 128.3616   0.94198   0.47568 *   0.0104   1.0000
   8.400 129.3543   0.95276   0.48535 *   0.0097   1.0000
   8.500 130.3513   0.96307   0.49467 *   0.0088   1.0000
   8.600 131.3528   0.97285   0.50381 *   0.0081   1.0000
   8.700 132.3779   0.98055   0.51108 *   0.0081   1.0000
   8.800 133.3996   0.98837   0.51846 *   0.0080   1.0000
   8.900 134.4181   0.99632   0.52598 *   0.0080   1.0000
   9.000 135.4342   1.00438   0.53362 *   0.0080   1.0000
   9.100 136.4458   1.01264   0.54145 *   0.0079   1.0000
   9.200 137.4538   1.02104   0.54944 *   0.0079   1.0000
   9.300 138.4575   1.02963   0.55761 *   0.0078   1.0000
   9.400 139.4568   1.03844   0.56598 *   0.0077   1.0000
   9.500 140.4498   1.04761   0.57468 *   0.0076   1.0000
   9.600 141.4361   1.05712   0.58367 *   0.0074   1.0000
   9.700 142.4147   1.06709   0.59306 *   0.0072   1.0000
   9.800 143.3830   1.07769   0.60397 *   0.0070   1.0000
   9.900 144.3384   1.08909   0.61458 *   0.0066   1.0000
  10.000 145.2916   1.10040   0.62510 *   0.0063   1.0000
  10.100 146.2394   1.11193   0.63579 *   0.0059   1.0000
  10.200 147.1922   1.12285   0.64607 *   0.0055   1.0000
  10.300 148.1411   1.13387   0.65658 *   0.0050   1.0000
  10.400 149.0784   1.14559   0.66810 *   0.0045   1.0000
  10.600 150.9342   1.16980   0.69297 *   0.0041   1.0000
  10.700 151.8779   1.18015   0.70312 *   0.0041   1.0000
  10.800 152.8171   1.19057   0.71333 *   0.0041   1.0000
  10.900 153.7510   1.20110   0.72366 *   0.0041   1.0000
  11.000 154.6801   1.21176   0.73414 *   0.0041   1.0000
  11.100 155.6025   1.22256   0.74478 *   0.0041   1.0000
  11.200 156.5202   1.23347   0.75554 *   0.0040   1.0000
  11.300 157.4319   1.24451   0.76642 *   0.0040   1.0000
  11.400 158.3376   1.25563   0.77741 *   0.0040   1.0000
  11.500 159.2360   1.26700   0.78868 *   0.0040   1.0000
  11.600 160.1285   1.27844   0.80000 *   0.0040   1.0000
  11.700 161.0132   1.29010   0.81159 *   0.0040   1.0000
  11.800 161.8907   1.30184   0.82326 *   0.0040   1.0000
  11.900 162.7598   1.31381   0.83578 *   0.0040   1.0000
  12.000 163.6206   1.32593   0.84787 *   0.0040   1.0000
  12.100 164.4729   1.33823   0.86014 *   0.0040   1.0000
  12.200 165.2888   1.35056   0.87253 *   0.0040   1.0000
  12.300 166.0717   1.36307   0.88510 *   0.0039   1.0000
  12.400 166.8175   1.37585   0.89800 *   0.0039   1.0000
  12.500 167.5454   1.38880   0.91106 *   0.0039   1.0000
  12.600 168.2565   1.40229   0.92476 *   0.0039   1.0000
  12.700 168.9604   1.41621   0.93881 *   0.0038   1.0000
  12.800 169.6644   1.43065   0.95338 *   0.0038   1.0000
  12.900 170.3586   1.44550   0.96840 *   0.0037   1.0000
  13.000 171.0291   1.46092   0.98403 *   0.0037   1.0000
  13.100 171.6882   1.47707   1.00029 *   0.0036   1.0000
  13.200 172.3520   1.49365   1.01702 *   0.0036   1.0000
  13.300 172.9998   1.51121   1.03472 *   0.0035   1.0000
  13.400 173.6375   1.52981   1.05341 *   0.0034   1.0000
  13.500 174.2684   1.54835   1.07219 *   0.0033   1.0000
  13.600 174.8311   1.56928   1.09321 *   0.0032   1.0000
  13.700 175.4096   1.59034   1.11474 *   0.0031   1.0000
  13.800 176.0111   1.61146   1.13601 *   0.0031   1.0000
  13.900 176.6150   1.63335   1.15802 *   0.0029   1.0000
  14.000 177.2157   1.65564   1.18052 *   0.0028   1.0000
  14.100 177.7732   1.67920   1.20450 *   0.0027   1.0000
  14.200 178.3175   1.70302   1.22880 *   0.0026   1.0000
  14.300 178.8697   1.72733   1.25361 *   0.0025   1.0000
  14.400 179.4516   1.75104   1.27790 *   0.0025   1.0000
  14.500 179.9940   1.77713   1.30470 *   0.0024   1.0000
  14.600 180.5045   1.80465   1.33304 *   0.0023   1.0000
  14.700 181.0422   1.83172   1.36091 *   0.0023   1.0000
  14.800 181.5734   1.86016   1.39035 *   0.0022   1.0000
  14.900 182.0995   1.88884   1.42008 *   0.0021   1.0000
  15.000 182.5541   1.92009   1.45251 *   0.0021   1.0000
  15.100 183.0382   1.95054   1.48393 *   0.0021   1.0000
  15.200 183.5762   1.97903   1.51309 *   0.0021   1.0000
  15.300 184.1294   2.00740   1.54208 *   0.0021   1.0000
  15.400 184.6229   2.03923   1.57469 *   0.0021   1.0000
  15.500 185.0945   2.07289   1.60922 *   0.0021   1.0000
  15.600 185.6015   2.10522   1.64255 *   0.0021   1.0000
  15.700 186.1230   2.13738   1.67545 *   0.0021   1.0000
  15.800 186.5981   2.17250   1.71141 *   0.0021   1.0000
  15.900 187.0084   2.21102   1.75095 *   0.0021   1.0000
  16.000 187.4656   2.24703   1.78779 *   0.0021   1.0000
  16.100 187.9320   2.28326   1.82489 *   0.0020   1.0000
  16.200 188.3571   2.32274   1.86530 *   0.0020   1.0000
  16.300 188.7425   2.36556   1.90915 *   0.0020   1.0000
  16.400 189.1642   2.40686   1.95143 *   0.0020   1.0000
  16.500 189.6111   2.44718   1.99266 *   0.0020   1.0000
  16.600 189.9857   2.49309   2.03960 *   0.0020   1.0000
  16.700 190.3359   2.54128   2.08896 *   0.0020   1.0000
  16.800 190.7346   2.58674   2.13546 *   0.0020   1.0000
  16.900 191.1297   2.63279   2.18253 *   0.0020   1.0000
  17.000 191.4100   2.68780   2.23889 *   0.0020   1.0000
  17.100 191.7374   2.73874   2.29092 *   0.0020   1.0000
  17.200 192.0893   2.78804   2.34132 *   0.0020   1.0000
  17.300 192.3538   2.84538   2.40002 *   0.0020   1.0000
  17.400 192.6097   2.90476   2.46066 *   0.0020   1.0000
  17.500 192.9119   2.96085   2.51800 *   0.0020   1.0000
  17.600 193.1943   3.01940   2.57822 *   0.0020   1.0000
  17.700 193.3777   3.08773   2.64801 *   0.0019   1.0000
  17.800 193.6301   3.15044   2.71207 *   0.0019   1.0000
  17.900 193.8967   3.21268   2.77552 *   0.0019   1.0000
  18.000 194.0220   3.28933   2.85370 *   0.0019   1.0000
  18.100 194.2249   3.35950   2.92523 *   0.0019   1.0000
  18.200 194.4613   3.42703   2.99408 *   0.0019   1.0000
  18.300 194.5371   3.50995   3.07877 *   0.0019   1.0000
  18.400 194.6496   3.58907   3.15940 *   0.0018   1.0000
  18.500 194.8434   3.66099   3.23275 *   0.0018   1.0000
  18.600 194.8544   3.75407   3.32762 *   0.0018   1.0000
  18.700 194.9297   3.84171   3.41681 *   0.0018   1.0000
  18.800 195.0525   3.92426   3.50075 *   0.0018   1.0000
  18.900 195.0085   4.02767   3.60614 *   0.0017   1.0000
  19.000 195.0505   4.12179   3.70193 *   0.0017   1.0000
  19.100 195.1501   4.21036   3.79206 *   0.0017   1.0000
  19.200 195.0019   4.32890   3.91267 *   0.0017   1.0000
  19.300 194.9981   4.43154   4.01703 *   0.0017   1.0000
  19.400 194.9651   4.53720   4.12440 *   0.0016   1.0000
  19.500 194.7951   4.66212   4.25150 *   0.0016   1.0000
  19.600 194.7583   4.76843   4.35967 *   0.0016   1.0000
  19.700 194.5783   4.89195   4.48524 *   0.0016   1.0000
  19.800 194.3734   5.02141   4.61699 *   0.0016   1.0000
  19.900 194.2450   5.14112   4.73853 *   0.0015   1.0000
  20.000 193.9634   5.28502   4.88498 *   0.0015   1.0000
