  
       XFOIL         Version 6.99
  
 Calculated polar for: "x [mm]" "y [mm]"                               
  
 1 1 Reynolds number fixed          Mach number fixed         
  
 xtrf =   1.000 (top)        1.000 (bottom)  
 Mach =   0.047     Re =     0.101 e 6     Ncrit =   9.000
  
   alpha    CL        CD       CDp       CM     Top_Xtr  Bot_Xtr
  ------ -------- --------- --------- -------- -------- --------
   0.000   0.3658   0.01863   0.01161  -0.0903   0.8477   1.0000
   0.200   0.3991   0.01836   0.01124  -0.0918   0.8427   1.0000
   0.400   0.4181   0.01844   0.01124  -0.0910   0.8337   1.0000
   0.600   0.4427   0.01835   0.01107  -0.0910   0.8260   1.0000
   0.800   0.4747   0.01804   0.01069  -0.0922   0.8214   1.0000
   1.000   0.4889   0.01825   0.01084  -0.0906   0.8101   1.0000
   1.200   0.5172   0.01797   0.01050  -0.0910   0.8036   1.0000
   1.400   0.5385   0.01794   0.01042  -0.0904   0.7947   1.0000
   1.600   0.5612   0.01782   0.01025  -0.0899   0.7856   1.0000
   1.800   0.5915   0.01746   0.00981  -0.0905   0.7800   1.0000
   2.000   0.6056   0.01767   0.01001  -0.0889   0.7673   1.0000
   2.200   0.6342   0.01736   0.00964  -0.0893   0.7608   1.0000
   2.400   0.6500   0.01751   0.00979  -0.0879   0.7481   1.0000
   2.600   0.6782   0.01720   0.00940  -0.0881   0.7405   1.0000
   2.800   0.6945   0.01732   0.00951  -0.0867   0.7269   1.0000
   3.000   0.7181   0.01718   0.00932  -0.0863   0.7164   1.0000
   3.200   0.7392   0.01712   0.00922  -0.0855   0.7038   1.0000
   3.400   0.7587   0.01716   0.00926  -0.0846   0.6904   1.0000
   3.600   0.7837   0.01703   0.00903  -0.0844   0.6793   1.0000
   3.800   0.8021   0.01711   0.00910  -0.0834   0.6639   1.0000
   4.000   0.8214   0.01720   0.00916  -0.0824   0.6486   1.0000
   4.200   0.8422   0.01724   0.00914  -0.0817   0.6335   1.0000
   4.400   0.8644   0.01727   0.00905  -0.0812   0.6189   1.0000
   4.600   0.8836   0.01741   0.00919  -0.0803   0.6024   1.0000
   4.800   0.9022   0.01764   0.00939  -0.0794   0.5862   1.0000
   5.000   0.9217   0.01788   0.00957  -0.0787   0.5712   1.0000
   5.200   0.9427   0.01810   0.00968  -0.0782   0.5576   1.0000
   5.400   0.9618   0.01836   0.00990  -0.0774   0.5431   1.0000
   5.600   0.9800   0.01871   0.01023  -0.0766   0.5295   1.0000
   5.800   1.0006   0.01900   0.01043  -0.0761   0.5176   1.0000
   6.000   1.0188   0.01929   0.01071  -0.0753   0.5042   1.0000
   6.200   1.0365   0.01961   0.01102  -0.0744   0.4909   1.0000
   6.400   1.0561   0.01987   0.01122  -0.0737   0.4784   1.0000
   6.600   1.0729   0.02016   0.01154  -0.0727   0.4650   1.0000
   6.800   1.0906   0.02051   0.01189  -0.0718   0.4533   1.0000
   7.000   1.1098   0.02084   0.01218  -0.0712   0.4428   1.0000
   7.200   1.1271   0.02127   0.01267  -0.0704   0.4325   1.0000
   7.400   1.1463   0.02162   0.01297  -0.0698   0.4223   1.0000
   7.600   1.1626   0.02204   0.01348  -0.0688   0.4114   1.0000
   7.800   1.1820   0.02241   0.01376  -0.0682   0.4009   1.0000
   8.000   1.1967   0.02284   0.01439  -0.0670   0.3895   1.0000
   8.200   1.2158   0.02329   0.01474  -0.0664   0.3791   1.0000
   8.400   1.2299   0.02373   0.01532  -0.0651   0.3673   1.0000
   8.600   1.2464   0.02422   0.01580  -0.0641   0.3557   1.0000
   8.800   1.2615   0.02467   0.01625  -0.0630   0.3430   1.0000
   9.000   1.2738   0.02518   0.01684  -0.0614   0.3292   1.0000
   9.200   1.2862   0.02566   0.01731  -0.0598   0.3146   1.0000
   9.400   1.2980   0.02613   0.01769  -0.0582   0.2993   1.0000
   9.600   1.3048   0.02656   0.01822  -0.0558   0.2834   1.0000
   9.800   1.3112   0.02707   0.01880  -0.0534   0.2673   1.0000
  10.000   1.3174   0.02762   0.01937  -0.0511   0.2520   1.0000
  10.200   1.3235   0.02822   0.01990  -0.0488   0.2383   1.0000
  10.400   1.3268   0.02884   0.02059  -0.0461   0.2247   1.0000
  10.600   1.3311   0.02959   0.02136  -0.0436   0.2123   1.0000
  10.800   1.3348   0.03040   0.02209  -0.0413   0.2018   1.0000
  11.000   1.3406   0.03131   0.02319  -0.0394   0.1915   1.0000
  11.200   1.3455   0.03227   0.02411  -0.0374   0.1831   1.0000
  11.400   1.3515   0.03332   0.02521  -0.0357   0.1750   1.0000
  11.600   1.3553   0.03436   0.02633  -0.0339   0.1669   1.0000
  11.800   1.3587   0.03559   0.02745  -0.0322   0.1592   1.0000
  12.000   1.3627   0.03675   0.02882  -0.0307   0.1521   1.0000
  12.200   1.3647   0.03805   0.03017  -0.0291   0.1452   1.0000
  12.400   1.3655   0.03955   0.03166  -0.0276   0.1379   1.0000
  12.600   1.3647   0.04109   0.03341  -0.0262   0.1298   1.0000
  12.800   1.3609   0.04297   0.03524  -0.0248   0.1220   1.0000
  13.000   1.3576   0.04499   0.03743  -0.0238   0.1131   1.0000
  13.200   1.3504   0.04740   0.03988  -0.0229   0.1043   1.0000
  13.400   1.3424   0.05015   0.04270  -0.0220   0.0947   1.0000
  13.600   1.3322   0.05323   0.04583  -0.0215   0.0855   1.0000
  13.800   1.3210   0.05656   0.04911  -0.0207   0.0774   1.0000
  14.000   1.3138   0.05970   0.05241  -0.0204   0.0700   1.0000
  14.200   1.3061   0.06288   0.05562  -0.0203   0.0653   1.0000
  14.400   1.2993   0.06590   0.05852  -0.0194   0.0606   1.0000
  14.600   1.2962   0.06879   0.06156  -0.0192   0.0576   1.0000
  14.800   1.2935   0.07165   0.06453  -0.0192   0.0551   1.0000
  15.000   1.2912   0.07442   0.06735  -0.0193   0.0530   1.0000
  15.200   1.2894   0.07710   0.07002  -0.0194   0.0513   1.0000
  15.400   1.2897   0.07952   0.07242  -0.0189   0.0497   1.0000
  15.800   1.2815   0.08620   0.07955  -0.0198   0.0471   1.0000
  16.000   1.2766   0.08970   0.08319  -0.0205   0.0459   1.0000
  16.200   1.2718   0.09323   0.08685  -0.0214   0.0447   1.0000
  16.400   1.2668   0.09678   0.09049  -0.0224   0.0437   1.0000
  16.600   1.2629   0.10018   0.09396  -0.0235   0.0427   1.0000
  16.800   1.2605   0.10333   0.09714  -0.0243   0.0417   1.0000
  17.000   1.2589   0.10638   0.10023  -0.0247   0.0409   1.0000
  17.200   1.2532   0.11031   0.10427  -0.0257   0.0404   1.0000
  17.400   1.2437   0.11504   0.10915  -0.0274   0.0402   1.0000
  17.600   1.2308   0.12058   0.11485  -0.0300   0.0401   1.0000
  17.800   1.2160   0.12666   0.12113  -0.0333   0.0401   1.0000
  18.000   1.1986   0.13360   0.12826  -0.0376   0.0403   1.0000
  18.200   1.0539   0.17698   0.17219  -0.0659   0.0495   1.0000
  18.400   1.0386   0.18676   0.18194  -0.0709   0.0500   1.0000
  18.800   0.9961   0.21712   0.21212  -0.0860   0.0585   1.0000
  19.000   0.9990   0.22173   0.21673  -0.0878   0.0591   1.0000
  19.200   1.0051   0.22628   0.22131  -0.0901   0.0620   1.0000
  19.400   0.9837   0.24193   0.23679  -0.1016   0.0884   1.0000
  19.600   0.9910   0.24453   0.23947  -0.1025   0.0860   1.0000
  19.800   0.9984   0.24742   0.24238  -0.1035   0.0846   1.0000
  20.000   1.0064   0.25047   0.24545  -0.1043   0.0835   1.0000
