  
       XFOIL         Version 6.99
  
 Calculated polar for: "x [mm]" "y [mm]"                               
  
 1 1 Reynolds number fixed          Mach number fixed         
  
 xtrf =   1.000 (top)        1.000 (bottom)  
 Mach =   0.030     Re =     0.065 e 6     Ncrit =   9.000
  
   alpha    CL        CD       CDp       CM     Top_Xtr  Bot_Xtr
  ------ -------- --------- --------- -------- -------- --------
   0.000   0.1937   0.02726   0.01883  -0.0693   0.9035   1.0000
   0.200   0.2203   0.02759   0.01900  -0.0704   0.8922   1.0000
   0.400   0.2571   0.02784   0.01910  -0.0731   0.8830   1.0000
   0.600   0.2793   0.02819   0.01935  -0.0734   0.8720   1.0000
   0.800   0.3162   0.02835   0.01939  -0.0759   0.8630   1.0000
   1.000   0.3372   0.02869   0.01966  -0.0759   0.8515   1.0000
   1.200   0.3749   0.02873   0.01961  -0.0783   0.8429   1.0000
   1.600   0.4344   0.02893   0.01968  -0.0805   0.8226   1.0000
   2.000   0.4943   0.02894   0.01963  -0.0824   0.8025   1.0000
   2.200   0.5115   0.02924   0.01990  -0.0815   0.7891   1.0000
   2.400   0.5541   0.02864   0.01928  -0.0837   0.7822   1.0000
   2.600   0.5705   0.02890   0.01954  -0.0825   0.7679   1.0000
   2.800   0.6124   0.02813   0.01875  -0.0842   0.7615   1.0000
   3.200   0.6692   0.02755   0.01818  -0.0844   0.7406   1.0000
   3.400   0.6846   0.02780   0.01843  -0.0829   0.7250   1.0000
   3.600   0.7081   0.02767   0.01831  -0.0823   0.7123   1.0000
   3.800   0.7422   0.02697   0.01763  -0.0828   0.7026   1.0000
   4.000   0.7604   0.02713   0.01780  -0.0816   0.6877   1.0000
   4.200   0.7986   0.02629   0.01692  -0.0825   0.6801   1.0000
   4.400   0.8132   0.02669   0.01735  -0.0811   0.6641   1.0000
   4.600   0.8323   0.02690   0.01757  -0.0801   0.6500   1.0000
   4.800   0.8664   0.02627   0.01689  -0.0806   0.6407   1.0000
   5.000   0.8802   0.02681   0.01751  -0.0792   0.6254   1.0000
   5.200   0.9010   0.02705   0.01776  -0.0785   0.6134   1.0000
   5.400   0.9271   0.02696   0.01764  -0.0784   0.6027   1.0000
   5.600   0.9418   0.02758   0.01831  -0.0772   0.5897   1.0000
   5.800   0.9730   0.02722   0.01787  -0.0775   0.5805   1.0000
   6.000   0.9837   0.02807   0.01882  -0.0759   0.5672   1.0000
   6.200   1.0088   0.02811   0.01883  -0.0757   0.5574   1.0000
   6.400   1.0252   0.02861   0.01939  -0.0747   0.5454   1.0000
   6.600   1.0448   0.02898   0.01978  -0.0739   0.5347   1.0000
   6.800   1.0677   0.02903   0.01989  -0.0734   0.5231   1.0000
   7.000   1.0822   0.02954   0.02047  -0.0720   0.5101   1.0000
   7.200   1.1073   0.02934   0.02019  -0.0716   0.4975   1.0000
   7.400   1.1249   0.02954   0.02042  -0.0704   0.4837   1.0000
   7.600   1.1398   0.03000   0.02095  -0.0691   0.4706   1.0000
   7.800   1.1650   0.02999   0.02084  -0.0688   0.4588   1.0000
   8.000   1.1769   0.03068   0.02169  -0.0673   0.4463   1.0000
   8.200   1.1949   0.03114   0.02226  -0.0663   0.4343   1.0000
   8.400   1.2179   0.03127   0.02231  -0.0659   0.4212   1.0000
   8.600   1.2279   0.03199   0.02319  -0.0640   0.4071   1.0000
   8.800   1.2442   0.03246   0.02367  -0.0628   0.3925   1.0000
   9.000   1.2637   0.03279   0.02392  -0.0619   0.3771   1.0000
   9.200   1.2824   0.03325   0.02429  -0.0609   0.3609   1.0000
   9.400   1.2909   0.03414   0.02532  -0.0588   0.3447   1.0000
   9.600   1.3021   0.03507   0.02629  -0.0571   0.3282   1.0000
   9.800   1.3148   0.03599   0.02720  -0.0556   0.3120   1.0000
  10.000   1.3304   0.03684   0.02797  -0.0544   0.2965   1.0000
  10.200   1.3437   0.03756   0.02865  -0.0530   0.2819   1.0000
  10.400   1.3463   0.03879   0.03009  -0.0504   0.2695   1.0000
  10.600   1.3609   0.03938   0.03057  -0.0492   0.2572   1.0000
  10.800   1.3642   0.04027   0.03175  -0.0467   0.2463   1.0000
  11.000   1.3736   0.04092   0.03240  -0.0450   0.2358   1.0000
  11.200   1.3768   0.04168   0.03328  -0.0425   0.2261   1.0000
  11.400   1.3863   0.04236   0.03392  -0.0409   0.2170   1.0000
  11.600   1.3841   0.04346   0.03523  -0.0380   0.2090   1.0000
  11.800   1.3953   0.04368   0.03524  -0.0365   0.1992   1.0000
  12.000   1.3856   0.04513   0.03700  -0.0330   0.1929   1.0000
  12.200   1.3858   0.04575   0.03759  -0.0306   0.1843   1.0000
  12.400   1.3848   0.04697   0.03884  -0.0284   0.1766   1.0000
  12.600   1.3777   0.04859   0.04066  -0.0260   0.1697   1.0000
  12.800   1.3842   0.04943   0.04126  -0.0246   0.1594   1.0000
  13.000   1.3712   0.05177   0.04394  -0.0222   0.1539   1.0000
  13.200   1.3656   0.05351   0.04571  -0.0205   0.1451   1.0000
  13.400   1.3582   0.05590   0.04814  -0.0189   0.1358   1.0000
  13.600   1.3451   0.05866   0.05104  -0.0175   0.1274   1.0000
  13.800   1.3369   0.06154   0.05383  -0.0161   0.1164   1.0000
  14.000   1.3209   0.06514   0.05764  -0.0153   0.1099   1.0000
  14.200   1.3215   0.06763   0.05984  -0.0142   0.0988   1.0000
  14.400   1.3044   0.07165   0.06415  -0.0141   0.0961   1.0000
  14.600   1.2884   0.07585   0.06860  -0.0143   0.0932   1.0000
  14.800   1.2740   0.08002   0.07295  -0.0148   0.0902   1.0000
  15.000   1.2651   0.08348   0.07647  -0.0152   0.0864   1.0000
  15.200   1.2726   0.08572   0.07845  -0.0140   0.0798   1.0000
  15.400   1.2545   0.09067   0.08364  -0.0154   0.0794   1.0000
  15.600   1.2350   0.09615   0.08934  -0.0173   0.0791   1.0000
  15.800   1.2136   0.10228   0.09567  -0.0198   0.0791   1.0000
  16.000   1.1903   0.10914   0.10272  -0.0229   0.0793   1.0000
  16.200   1.1654   0.11685   0.11058  -0.0268   0.0798   1.0000
  16.400   0.9744   0.17522   0.16890  -0.0639   0.1172   1.0000
  16.600   0.9622   0.18325   0.17689  -0.0685   0.1157   1.0000
  16.800   0.9555   0.18988   0.18348  -0.0720   0.1147   1.0000
  17.000   0.9523   0.19571   0.18930  -0.0750   0.1145   1.0000
  17.200   0.9522   0.20106   0.19463  -0.0774   0.1154   1.0000
  17.400   0.9571   0.20598   0.19956  -0.0788   0.1174   1.0000
  17.600   0.9723   0.21083   0.20447  -0.0777   0.1195   1.0000
  18.200   0.6376   0.18364   0.17784  -0.0521   0.1773   1.0000
  18.400   0.6335   0.18495   0.17916  -0.0535   0.1704   1.0000
  18.600   0.6419   0.18766   0.18190  -0.0535   0.1642   1.0000
  18.800   0.6743   0.19783   0.19212  -0.0520   0.1600   1.0000
  19.000   0.6608   0.19699   0.19127  -0.0540   0.1594   1.0000
  19.200   0.6478   0.19624   0.19050  -0.0562   0.1573   1.0000
  19.400   0.6446   0.19762   0.19189  -0.0577   0.1522   1.0000
  19.600   0.6485   0.19991   0.19420  -0.0583   0.1471   1.0000
  19.800   0.6857   0.21085   0.20519  -0.0559   0.1400   1.0000
  20.000   0.6733   0.20974   0.20407  -0.0579   0.1395   1.0000
